<edges>
	<edge from="right2left_1"  to="right2left_2"  id="1to2r"  numLanes="3"/>
	<edge from="right2left_2"  to="right2left_3"  id="outr"  numLanes="3"/>
</edges>                                          

